[board]
type=System
children=cache_hierarchy clk_domain dvfs_handler memory processor workload
auto_unlink_shared_backstore=false
cache_line_size=64
eventq_index=0
exit_on_work_items=true
external_memory_ranges=
init_param=0
m5ops_base=4294901760
mem_mode=timing
mem_ranges=0:536870912
memories=board.memory.mem_ctrl.dram
mmap_using_noreserve=false
multi_thread=false
num_work_ids=16
readfile=
redirect_paths=
shadow_rom_ranges=
shared_backstore=
symbolfile=
thermal_components=
thermal_model=Null
work_begin_ckpt_count=0
work_begin_cpu_id_exit=-1
work_begin_exit_count=0
work_cpus_ckpt_count=0
work_end_ckpt_count=0
work_end_exit_count=0
work_item_id=-1
workload=board.workload
system_port=board.cache_hierarchy.ruby_system.sys_port_proxy.in_ports[0]

[board.cache_hierarchy]
type=SubSystem
children=ruby_system
eventq_index=0
thermal_domain=Null

[board.cache_hierarchy.ruby_system]
type=RubySystem
children=directory_controllers l1_controllers l2_controllers network power_state sys_port_proxy
access_backing_store=false
all_instructions=false
block_size_bytes=64
clk_domain=board.clk_domain
eventq_index=0
hot_lines=false
memory_size_bits=64
num_of_sequencers=1
number_of_virtual_networks=3
phys_mem=Null
power_model=
power_state=board.cache_hierarchy.ruby_system.power_state
randomization=false
system=board

[board.cache_hierarchy.ruby_system.directory_controllers]
type=MESI_Two_Level_Directory_Controller
children=directory power_state requestToDir requestToMemory responseFromDir responseFromMemory responseToDir
addr_ranges=0:536870912
buffer_size=0
clk_domain=board.clk_domain
cluster_id=0
directory=board.cache_hierarchy.ruby_system.directory_controllers.directory
directory_latency=6
downstream_destinations=
eventq_index=0
mandatory_queue_latency=1
number_of_TBEs=256
power_model=
power_state=board.cache_hierarchy.ruby_system.directory_controllers.power_state
recycle_latency=10
requestToDir=board.cache_hierarchy.ruby_system.directory_controllers.requestToDir
requestToMemory=board.cache_hierarchy.ruby_system.directory_controllers.requestToMemory
responseFromDir=board.cache_hierarchy.ruby_system.directory_controllers.responseFromDir
responseFromMemory=board.cache_hierarchy.ruby_system.directory_controllers.responseFromMemory
responseToDir=board.cache_hierarchy.ruby_system.directory_controllers.responseToDir
ruby_system=board.cache_hierarchy.ruby_system
system=board
to_mem_ctrl_latency=1
transitions_per_cycle=32
upstream_destinations=
version=0
memory_out_port=board.memory.mem_ctrl.port

[board.cache_hierarchy.ruby_system.directory_controllers.directory]
type=RubyDirectoryMemory
addr_ranges=0:536870912
block_size=64
eventq_index=0
ruby_system=board.cache_hierarchy.ruby_system

[board.cache_hierarchy.ruby_system.directory_controllers.power_state]
type=PowerState
clk_gate_bins=20
clk_gate_max=1000000000000
clk_gate_min=1000
default_state=UNDEFINED
eventq_index=0
leaders=
possible_states=

[board.cache_hierarchy.ruby_system.directory_controllers.requestToDir]
type=MessageBuffer
allow_zero_latency=false
buffer_size=0
eventq_index=0
max_dequeue_rate=0
ordered=false
randomization=ruby_system
routing_priority=0
in_port=board.cache_hierarchy.ruby_system.network.out_port[5]

[board.cache_hierarchy.ruby_system.directory_controllers.requestToMemory]
type=MessageBuffer
allow_zero_latency=false
buffer_size=0
eventq_index=0
max_dequeue_rate=0
ordered=false
randomization=ruby_system
routing_priority=0

[board.cache_hierarchy.ruby_system.directory_controllers.responseFromDir]
type=MessageBuffer
allow_zero_latency=false
buffer_size=0
eventq_index=0
max_dequeue_rate=0
ordered=false
randomization=ruby_system
routing_priority=0
out_port=board.cache_hierarchy.ruby_system.network.in_port[6]

[board.cache_hierarchy.ruby_system.directory_controllers.responseFromMemory]
type=MessageBuffer
allow_zero_latency=false
buffer_size=0
eventq_index=0
max_dequeue_rate=0
ordered=false
randomization=ruby_system
routing_priority=0

[board.cache_hierarchy.ruby_system.directory_controllers.responseToDir]
type=MessageBuffer
allow_zero_latency=false
buffer_size=0
eventq_index=0
max_dequeue_rate=0
ordered=false
randomization=ruby_system
routing_priority=0
in_port=board.cache_hierarchy.ruby_system.network.out_port[6]

[board.cache_hierarchy.ruby_system.l1_controllers]
type=MESI_Two_Level_L1Cache_Controller
children=L1Dcache L1Icache mandatoryQueue optionalQueue power_state prefetcher requestFromL1Cache requestToL1Cache responseFromL1Cache responseToL1Cache sequencer unblockFromL1Cache
L1Dcache=board.cache_hierarchy.ruby_system.l1_controllers.L1Dcache
L1Icache=board.cache_hierarchy.ruby_system.l1_controllers.L1Icache
addr_ranges=0:18446744073709551615
buffer_size=0
clk_domain=board.clk_domain
cluster_id=0
downstream_destinations=
enable_prefetch=false
eventq_index=0
l1_request_latency=2
l1_response_latency=2
l2_select_num_bits=0
llsc_lock_timeout_latency=16
mandatoryQueue=board.cache_hierarchy.ruby_system.l1_controllers.mandatoryQueue
mandatory_queue_latency=1
number_of_TBEs=256
optionalQueue=board.cache_hierarchy.ruby_system.l1_controllers.optionalQueue
power_model=
power_state=board.cache_hierarchy.ruby_system.l1_controllers.power_state
prefetcher=board.cache_hierarchy.ruby_system.l1_controllers.prefetcher
recycle_latency=10
requestFromL1Cache=board.cache_hierarchy.ruby_system.l1_controllers.requestFromL1Cache
requestToL1Cache=board.cache_hierarchy.ruby_system.l1_controllers.requestToL1Cache
responseFromL1Cache=board.cache_hierarchy.ruby_system.l1_controllers.responseFromL1Cache
responseToL1Cache=board.cache_hierarchy.ruby_system.l1_controllers.responseToL1Cache
ruby_system=board.cache_hierarchy.ruby_system
send_evictions=true
sequencer=board.cache_hierarchy.ruby_system.l1_controllers.sequencer
system=board
to_l2_latency=1
transitions_per_cycle=4
unblockFromL1Cache=board.cache_hierarchy.ruby_system.l1_controllers.unblockFromL1Cache
upstream_destinations=
use_llsc_lock=true
version=0

[board.cache_hierarchy.ruby_system.l1_controllers.L1Dcache]
type=RubyCache
children=replacement_policy
assoc=8
atomicALUs=64
atomicLatency=0
block_size=0
dataAccessLatency=1
dataArrayBanks=1
eventq_index=0
is_icache=false
replacement_policy=board.cache_hierarchy.ruby_system.l1_controllers.L1Dcache.replacement_policy
resourceStalls=false
size=16384
start_index_bit=64
tagAccessLatency=1
tagArrayBanks=1

[board.cache_hierarchy.ruby_system.l1_controllers.L1Dcache.replacement_policy]
type=TreePLRURP
eventq_index=0
num_leaves=8

[board.cache_hierarchy.ruby_system.l1_controllers.L1Icache]
type=RubyCache
children=replacement_policy
assoc=8
atomicALUs=64
atomicLatency=0
block_size=0
dataAccessLatency=1
dataArrayBanks=1
eventq_index=0
is_icache=true
replacement_policy=board.cache_hierarchy.ruby_system.l1_controllers.L1Icache.replacement_policy
resourceStalls=false
size=16384
start_index_bit=64
tagAccessLatency=1
tagArrayBanks=1

[board.cache_hierarchy.ruby_system.l1_controllers.L1Icache.replacement_policy]
type=TreePLRURP
eventq_index=0
num_leaves=8

[board.cache_hierarchy.ruby_system.l1_controllers.mandatoryQueue]
type=MessageBuffer
allow_zero_latency=false
buffer_size=0
eventq_index=0
max_dequeue_rate=0
ordered=false
randomization=ruby_system
routing_priority=0

[board.cache_hierarchy.ruby_system.l1_controllers.optionalQueue]
type=MessageBuffer
allow_zero_latency=false
buffer_size=0
eventq_index=0
max_dequeue_rate=0
ordered=false
randomization=ruby_system
routing_priority=0

[board.cache_hierarchy.ruby_system.l1_controllers.power_state]
type=PowerState
clk_gate_bins=20
clk_gate_max=1000000000000
clk_gate_min=1000
default_state=UNDEFINED
eventq_index=0
leaders=
possible_states=

[board.cache_hierarchy.ruby_system.l1_controllers.prefetcher]
type=RubyPrefetcher
block_size=64
cross_page=false
eventq_index=0
nonunit_filter=8
num_startup_pfs=1
num_streams=4
page_shift=12
train_misses=4
unit_filter=8

[board.cache_hierarchy.ruby_system.l1_controllers.requestFromL1Cache]
type=MessageBuffer
allow_zero_latency=false
buffer_size=0
eventq_index=0
max_dequeue_rate=0
ordered=false
randomization=ruby_system
routing_priority=0
out_port=board.cache_hierarchy.ruby_system.network.in_port[0]

[board.cache_hierarchy.ruby_system.l1_controllers.requestToL1Cache]
type=MessageBuffer
allow_zero_latency=false
buffer_size=0
eventq_index=0
max_dequeue_rate=0
ordered=false
randomization=ruby_system
routing_priority=0
in_port=board.cache_hierarchy.ruby_system.network.out_port[0]

[board.cache_hierarchy.ruby_system.l1_controllers.responseFromL1Cache]
type=MessageBuffer
allow_zero_latency=false
buffer_size=0
eventq_index=0
max_dequeue_rate=0
ordered=false
randomization=ruby_system
routing_priority=0
out_port=board.cache_hierarchy.ruby_system.network.in_port[1]

[board.cache_hierarchy.ruby_system.l1_controllers.responseToL1Cache]
type=MessageBuffer
allow_zero_latency=false
buffer_size=0
eventq_index=0
max_dequeue_rate=0
ordered=false
randomization=ruby_system
routing_priority=0
in_port=board.cache_hierarchy.ruby_system.network.out_port[1]

[board.cache_hierarchy.ruby_system.l1_controllers.sequencer]
type=RubySequencer
children=power_state
clk_domain=board.clk_domain
coreid=99
dcache=board.cache_hierarchy.ruby_system.l1_controllers.L1Dcache
deadlock_threshold=500000
eventq_index=0
garnet_standalone=false
is_cpu_sequencer=true
max_outstanding_requests=16
no_retry_on_stall=false
power_model=
power_state=board.cache_hierarchy.ruby_system.l1_controllers.sequencer.power_state
ruby_system=board.cache_hierarchy.ruby_system
support_data_reqs=true
support_inst_reqs=true
system=board
using_ruby_tester=false
version=0
in_ports=board.processor.cores.core.icache_port board.processor.cores.core.dcache_port board.processor.cores.core.mmu.itb.walker.port board.processor.cores.core.mmu.dtb.walker.port board.processor.cores.core.interrupts.int_requestor
interrupt_out_port=board.processor.cores.core.interrupts.pio board.processor.cores.core.interrupts.int_responder

[board.cache_hierarchy.ruby_system.l1_controllers.sequencer.power_state]
type=PowerState
clk_gate_bins=20
clk_gate_max=1000000000000
clk_gate_min=1000
default_state=UNDEFINED
eventq_index=0
leaders=
possible_states=

[board.cache_hierarchy.ruby_system.l1_controllers.unblockFromL1Cache]
type=MessageBuffer
allow_zero_latency=false
buffer_size=0
eventq_index=0
max_dequeue_rate=0
ordered=false
randomization=ruby_system
routing_priority=0
out_port=board.cache_hierarchy.ruby_system.network.in_port[2]

[board.cache_hierarchy.ruby_system.l2_controllers]
type=MESI_Two_Level_L2Cache_Controller
children=DirRequestFromL2Cache L1RequestFromL2Cache L1RequestToL2Cache L2cache power_state responseFromL2Cache responseToL2Cache unblockToL2Cache
DirRequestFromL2Cache=board.cache_hierarchy.ruby_system.l2_controllers.DirRequestFromL2Cache
L1RequestFromL2Cache=board.cache_hierarchy.ruby_system.l2_controllers.L1RequestFromL2Cache
L1RequestToL2Cache=board.cache_hierarchy.ruby_system.l2_controllers.L1RequestToL2Cache
L2cache=board.cache_hierarchy.ruby_system.l2_controllers.L2cache
addr_ranges=0:18446744073709551615
buffer_size=0
clk_domain=board.clk_domain
cluster_id=0
downstream_destinations=
eventq_index=0
l2_request_latency=2
l2_response_latency=2
mandatory_queue_latency=1
number_of_TBEs=256
power_model=
power_state=board.cache_hierarchy.ruby_system.l2_controllers.power_state
recycle_latency=10
responseFromL2Cache=board.cache_hierarchy.ruby_system.l2_controllers.responseFromL2Cache
responseToL2Cache=board.cache_hierarchy.ruby_system.l2_controllers.responseToL2Cache
ruby_system=board.cache_hierarchy.ruby_system
system=board
to_l1_latency=1
transitions_per_cycle=4
unblockToL2Cache=board.cache_hierarchy.ruby_system.l2_controllers.unblockToL2Cache
upstream_destinations=
version=0

[board.cache_hierarchy.ruby_system.l2_controllers.DirRequestFromL2Cache]
type=MessageBuffer
allow_zero_latency=false
buffer_size=0
eventq_index=0
max_dequeue_rate=0
ordered=false
randomization=ruby_system
routing_priority=0
out_port=board.cache_hierarchy.ruby_system.network.in_port[3]

[board.cache_hierarchy.ruby_system.l2_controllers.L1RequestFromL2Cache]
type=MessageBuffer
allow_zero_latency=false
buffer_size=0
eventq_index=0
max_dequeue_rate=0
ordered=false
randomization=ruby_system
routing_priority=0
out_port=board.cache_hierarchy.ruby_system.network.in_port[4]

[board.cache_hierarchy.ruby_system.l2_controllers.L1RequestToL2Cache]
type=MessageBuffer
allow_zero_latency=false
buffer_size=0
eventq_index=0
max_dequeue_rate=0
ordered=false
randomization=ruby_system
routing_priority=0
in_port=board.cache_hierarchy.ruby_system.network.out_port[3]

[board.cache_hierarchy.ruby_system.l2_controllers.L2cache]
type=RubyCache
children=replacement_policy
assoc=16
atomicALUs=64
atomicLatency=0
block_size=0
dataAccessLatency=1
dataArrayBanks=1
eventq_index=0
is_icache=false
replacement_policy=board.cache_hierarchy.ruby_system.l2_controllers.L2cache.replacement_policy
resourceStalls=false
size=262144
start_index_bit=6
tagAccessLatency=1
tagArrayBanks=1

[board.cache_hierarchy.ruby_system.l2_controllers.L2cache.replacement_policy]
type=TreePLRURP
eventq_index=0
num_leaves=16

[board.cache_hierarchy.ruby_system.l2_controllers.power_state]
type=PowerState
clk_gate_bins=20
clk_gate_max=1000000000000
clk_gate_min=1000
default_state=UNDEFINED
eventq_index=0
leaders=
possible_states=

[board.cache_hierarchy.ruby_system.l2_controllers.responseFromL2Cache]
type=MessageBuffer
allow_zero_latency=false
buffer_size=0
eventq_index=0
max_dequeue_rate=0
ordered=false
randomization=ruby_system
routing_priority=0
out_port=board.cache_hierarchy.ruby_system.network.in_port[5]

[board.cache_hierarchy.ruby_system.l2_controllers.responseToL2Cache]
type=MessageBuffer
allow_zero_latency=false
buffer_size=0
eventq_index=0
max_dequeue_rate=0
ordered=false
randomization=ruby_system
routing_priority=0
in_port=board.cache_hierarchy.ruby_system.network.out_port[4]

[board.cache_hierarchy.ruby_system.l2_controllers.unblockToL2Cache]
type=MessageBuffer
allow_zero_latency=false
buffer_size=0
eventq_index=0
max_dequeue_rate=0
ordered=false
randomization=ruby_system
routing_priority=0
in_port=board.cache_hierarchy.ruby_system.network.out_port[2]

[board.cache_hierarchy.ruby_system.network]
type=SimpleNetwork
children=ext_links0 ext_links1 ext_links2 int_links0 int_links1 int_links2 int_links3 int_links4 int_links5 power_state routers0 routers1 routers2
buffer_size=0
clk_domain=board.clk_domain
control_msg_size=8
data_msg_size=64
endpoint_bandwidth=1000
eventq_index=0
ext_links=board.cache_hierarchy.ruby_system.network.ext_links0 board.cache_hierarchy.ruby_system.network.ext_links1 board.cache_hierarchy.ruby_system.network.ext_links2
int_links=board.cache_hierarchy.ruby_system.network.int_links0 board.cache_hierarchy.ruby_system.network.int_links1 board.cache_hierarchy.ruby_system.network.int_links2 board.cache_hierarchy.ruby_system.network.int_links3 board.cache_hierarchy.ruby_system.network.int_links4 board.cache_hierarchy.ruby_system.network.int_links5
netifs=
number_of_virtual_networks=3
physical_vnets_bandwidth=
physical_vnets_channels=
power_model=
power_state=board.cache_hierarchy.ruby_system.network.power_state
routers=board.cache_hierarchy.ruby_system.network.routers0 board.cache_hierarchy.ruby_system.network.routers1 board.cache_hierarchy.ruby_system.network.routers2
ruby_system=board.cache_hierarchy.ruby_system
topology=Not Specified
in_port=board.cache_hierarchy.ruby_system.l1_controllers.requestFromL1Cache.out_port board.cache_hierarchy.ruby_system.l1_controllers.responseFromL1Cache.out_port board.cache_hierarchy.ruby_system.l1_controllers.unblockFromL1Cache.out_port board.cache_hierarchy.ruby_system.l2_controllers.DirRequestFromL2Cache.out_port board.cache_hierarchy.ruby_system.l2_controllers.L1RequestFromL2Cache.out_port board.cache_hierarchy.ruby_system.l2_controllers.responseFromL2Cache.out_port board.cache_hierarchy.ruby_system.directory_controllers.responseFromDir.out_port
out_port=board.cache_hierarchy.ruby_system.l1_controllers.requestToL1Cache.in_port board.cache_hierarchy.ruby_system.l1_controllers.responseToL1Cache.in_port board.cache_hierarchy.ruby_system.l2_controllers.unblockToL2Cache.in_port board.cache_hierarchy.ruby_system.l2_controllers.L1RequestToL2Cache.in_port board.cache_hierarchy.ruby_system.l2_controllers.responseToL2Cache.in_port board.cache_hierarchy.ruby_system.directory_controllers.requestToDir.in_port board.cache_hierarchy.ruby_system.directory_controllers.responseToDir.in_port

[board.cache_hierarchy.ruby_system.network.ext_links0]
type=SimpleExtLink
bandwidth_factor=16
eventq_index=0
ext_node=board.cache_hierarchy.ruby_system.l1_controllers
int_node=board.cache_hierarchy.ruby_system.network.routers0
latency=1
link_id=0
supported_vnets=
weight=1

[board.cache_hierarchy.ruby_system.network.ext_links1]
type=SimpleExtLink
bandwidth_factor=16
eventq_index=0
ext_node=board.cache_hierarchy.ruby_system.l2_controllers
int_node=board.cache_hierarchy.ruby_system.network.routers1
latency=1
link_id=1
supported_vnets=
weight=1

[board.cache_hierarchy.ruby_system.network.ext_links2]
type=SimpleExtLink
bandwidth_factor=16
eventq_index=0
ext_node=board.cache_hierarchy.ruby_system.directory_controllers
int_node=board.cache_hierarchy.ruby_system.network.routers2
latency=1
link_id=2
supported_vnets=
weight=1

[board.cache_hierarchy.ruby_system.network.int_links0]
type=SimpleIntLink
children=buffers0 buffers1 buffers2
bandwidth_factor=16
buffers=board.cache_hierarchy.ruby_system.network.int_links0.buffers0 board.cache_hierarchy.ruby_system.network.int_links0.buffers1 board.cache_hierarchy.ruby_system.network.int_links0.buffers2
dst_inport=
dst_node=board.cache_hierarchy.ruby_system.network.routers1
eventq_index=0
latency=1
link_id=1
src_node=board.cache_hierarchy.ruby_system.network.routers0
src_outport=
supported_vnets=
weight=1

[board.cache_hierarchy.ruby_system.network.int_links0.buffers0]
type=MessageBuffer
allow_zero_latency=false
buffer_size=0
eventq_index=0
max_dequeue_rate=0
ordered=true
randomization=ruby_system
routing_priority=0

[board.cache_hierarchy.ruby_system.network.int_links0.buffers1]
type=MessageBuffer
allow_zero_latency=false
buffer_size=0
eventq_index=0
max_dequeue_rate=0
ordered=true
randomization=ruby_system
routing_priority=0

[board.cache_hierarchy.ruby_system.network.int_links0.buffers2]
type=MessageBuffer
allow_zero_latency=false
buffer_size=0
eventq_index=0
max_dequeue_rate=0
ordered=true
randomization=ruby_system
routing_priority=0

[board.cache_hierarchy.ruby_system.network.int_links1]
type=SimpleIntLink
children=buffers0 buffers1 buffers2
bandwidth_factor=16
buffers=board.cache_hierarchy.ruby_system.network.int_links1.buffers0 board.cache_hierarchy.ruby_system.network.int_links1.buffers1 board.cache_hierarchy.ruby_system.network.int_links1.buffers2
dst_inport=
dst_node=board.cache_hierarchy.ruby_system.network.routers2
eventq_index=0
latency=1
link_id=2
src_node=board.cache_hierarchy.ruby_system.network.routers0
src_outport=
supported_vnets=
weight=1

[board.cache_hierarchy.ruby_system.network.int_links1.buffers0]
type=MessageBuffer
allow_zero_latency=false
buffer_size=0
eventq_index=0
max_dequeue_rate=0
ordered=true
randomization=ruby_system
routing_priority=0

[board.cache_hierarchy.ruby_system.network.int_links1.buffers1]
type=MessageBuffer
allow_zero_latency=false
buffer_size=0
eventq_index=0
max_dequeue_rate=0
ordered=true
randomization=ruby_system
routing_priority=0

[board.cache_hierarchy.ruby_system.network.int_links1.buffers2]
type=MessageBuffer
allow_zero_latency=false
buffer_size=0
eventq_index=0
max_dequeue_rate=0
ordered=true
randomization=ruby_system
routing_priority=0

[board.cache_hierarchy.ruby_system.network.int_links2]
type=SimpleIntLink
children=buffers0 buffers1 buffers2
bandwidth_factor=16
buffers=board.cache_hierarchy.ruby_system.network.int_links2.buffers0 board.cache_hierarchy.ruby_system.network.int_links2.buffers1 board.cache_hierarchy.ruby_system.network.int_links2.buffers2
dst_inport=
dst_node=board.cache_hierarchy.ruby_system.network.routers0
eventq_index=0
latency=1
link_id=3
src_node=board.cache_hierarchy.ruby_system.network.routers1
src_outport=
supported_vnets=
weight=1

[board.cache_hierarchy.ruby_system.network.int_links2.buffers0]
type=MessageBuffer
allow_zero_latency=false
buffer_size=0
eventq_index=0
max_dequeue_rate=0
ordered=true
randomization=ruby_system
routing_priority=0

[board.cache_hierarchy.ruby_system.network.int_links2.buffers1]
type=MessageBuffer
allow_zero_latency=false
buffer_size=0
eventq_index=0
max_dequeue_rate=0
ordered=true
randomization=ruby_system
routing_priority=0

[board.cache_hierarchy.ruby_system.network.int_links2.buffers2]
type=MessageBuffer
allow_zero_latency=false
buffer_size=0
eventq_index=0
max_dequeue_rate=0
ordered=true
randomization=ruby_system
routing_priority=0

[board.cache_hierarchy.ruby_system.network.int_links3]
type=SimpleIntLink
children=buffers0 buffers1 buffers2
bandwidth_factor=16
buffers=board.cache_hierarchy.ruby_system.network.int_links3.buffers0 board.cache_hierarchy.ruby_system.network.int_links3.buffers1 board.cache_hierarchy.ruby_system.network.int_links3.buffers2
dst_inport=
dst_node=board.cache_hierarchy.ruby_system.network.routers2
eventq_index=0
latency=1
link_id=4
src_node=board.cache_hierarchy.ruby_system.network.routers1
src_outport=
supported_vnets=
weight=1

[board.cache_hierarchy.ruby_system.network.int_links3.buffers0]
type=MessageBuffer
allow_zero_latency=false
buffer_size=0
eventq_index=0
max_dequeue_rate=0
ordered=true
randomization=ruby_system
routing_priority=0

[board.cache_hierarchy.ruby_system.network.int_links3.buffers1]
type=MessageBuffer
allow_zero_latency=false
buffer_size=0
eventq_index=0
max_dequeue_rate=0
ordered=true
randomization=ruby_system
routing_priority=0

[board.cache_hierarchy.ruby_system.network.int_links3.buffers2]
type=MessageBuffer
allow_zero_latency=false
buffer_size=0
eventq_index=0
max_dequeue_rate=0
ordered=true
randomization=ruby_system
routing_priority=0

[board.cache_hierarchy.ruby_system.network.int_links4]
type=SimpleIntLink
children=buffers0 buffers1 buffers2
bandwidth_factor=16
buffers=board.cache_hierarchy.ruby_system.network.int_links4.buffers0 board.cache_hierarchy.ruby_system.network.int_links4.buffers1 board.cache_hierarchy.ruby_system.network.int_links4.buffers2
dst_inport=
dst_node=board.cache_hierarchy.ruby_system.network.routers0
eventq_index=0
latency=1
link_id=5
src_node=board.cache_hierarchy.ruby_system.network.routers2
src_outport=
supported_vnets=
weight=1

[board.cache_hierarchy.ruby_system.network.int_links4.buffers0]
type=MessageBuffer
allow_zero_latency=false
buffer_size=0
eventq_index=0
max_dequeue_rate=0
ordered=true
randomization=ruby_system
routing_priority=0

[board.cache_hierarchy.ruby_system.network.int_links4.buffers1]
type=MessageBuffer
allow_zero_latency=false
buffer_size=0
eventq_index=0
max_dequeue_rate=0
ordered=true
randomization=ruby_system
routing_priority=0

[board.cache_hierarchy.ruby_system.network.int_links4.buffers2]
type=MessageBuffer
allow_zero_latency=false
buffer_size=0
eventq_index=0
max_dequeue_rate=0
ordered=true
randomization=ruby_system
routing_priority=0

[board.cache_hierarchy.ruby_system.network.int_links5]
type=SimpleIntLink
children=buffers0 buffers1 buffers2
bandwidth_factor=16
buffers=board.cache_hierarchy.ruby_system.network.int_links5.buffers0 board.cache_hierarchy.ruby_system.network.int_links5.buffers1 board.cache_hierarchy.ruby_system.network.int_links5.buffers2
dst_inport=
dst_node=board.cache_hierarchy.ruby_system.network.routers1
eventq_index=0
latency=1
link_id=6
src_node=board.cache_hierarchy.ruby_system.network.routers2
src_outport=
supported_vnets=
weight=1

[board.cache_hierarchy.ruby_system.network.int_links5.buffers0]
type=MessageBuffer
allow_zero_latency=false
buffer_size=0
eventq_index=0
max_dequeue_rate=0
ordered=true
randomization=ruby_system
routing_priority=0

[board.cache_hierarchy.ruby_system.network.int_links5.buffers1]
type=MessageBuffer
allow_zero_latency=false
buffer_size=0
eventq_index=0
max_dequeue_rate=0
ordered=true
randomization=ruby_system
routing_priority=0

[board.cache_hierarchy.ruby_system.network.int_links5.buffers2]
type=MessageBuffer
allow_zero_latency=false
buffer_size=0
eventq_index=0
max_dequeue_rate=0
ordered=true
randomization=ruby_system
routing_priority=0

[board.cache_hierarchy.ruby_system.network.power_state]
type=PowerState
clk_gate_bins=20
clk_gate_max=1000000000000
clk_gate_min=1000
default_state=UNDEFINED
eventq_index=0
leaders=
possible_states=

[board.cache_hierarchy.ruby_system.network.routers0]
type=Switch
children=port_buffers0 port_buffers1 port_buffers2 port_buffers3 port_buffers4 port_buffers5 port_buffers6 port_buffers7 port_buffers8 power_state routing_unit
clk_domain=board.clk_domain
eventq_index=0
ext_routing_latency=1
int_routing_latency=1
latency=1
port_buffers=board.cache_hierarchy.ruby_system.network.routers0.port_buffers0 board.cache_hierarchy.ruby_system.network.routers0.port_buffers1 board.cache_hierarchy.ruby_system.network.routers0.port_buffers2 board.cache_hierarchy.ruby_system.network.routers0.port_buffers3 board.cache_hierarchy.ruby_system.network.routers0.port_buffers4 board.cache_hierarchy.ruby_system.network.routers0.port_buffers5 board.cache_hierarchy.ruby_system.network.routers0.port_buffers6 board.cache_hierarchy.ruby_system.network.routers0.port_buffers7 board.cache_hierarchy.ruby_system.network.routers0.port_buffers8
power_model=
power_state=board.cache_hierarchy.ruby_system.network.routers0.power_state
router_id=0
routing_unit=board.cache_hierarchy.ruby_system.network.routers0.routing_unit
virt_nets=3

[board.cache_hierarchy.ruby_system.network.routers0.port_buffers0]
type=MessageBuffer
allow_zero_latency=true
buffer_size=0
eventq_index=0
max_dequeue_rate=0
ordered=true
randomization=ruby_system
routing_priority=0

[board.cache_hierarchy.ruby_system.network.routers0.port_buffers1]
type=MessageBuffer
allow_zero_latency=true
buffer_size=0
eventq_index=0
max_dequeue_rate=0
ordered=true
randomization=ruby_system
routing_priority=0

[board.cache_hierarchy.ruby_system.network.routers0.port_buffers2]
type=MessageBuffer
allow_zero_latency=true
buffer_size=0
eventq_index=0
max_dequeue_rate=0
ordered=true
randomization=ruby_system
routing_priority=0

[board.cache_hierarchy.ruby_system.network.routers0.port_buffers3]
type=MessageBuffer
allow_zero_latency=true
buffer_size=0
eventq_index=0
max_dequeue_rate=0
ordered=true
randomization=ruby_system
routing_priority=0

[board.cache_hierarchy.ruby_system.network.routers0.port_buffers4]
type=MessageBuffer
allow_zero_latency=true
buffer_size=0
eventq_index=0
max_dequeue_rate=0
ordered=true
randomization=ruby_system
routing_priority=0

[board.cache_hierarchy.ruby_system.network.routers0.port_buffers5]
type=MessageBuffer
allow_zero_latency=true
buffer_size=0
eventq_index=0
max_dequeue_rate=0
ordered=true
randomization=ruby_system
routing_priority=0

[board.cache_hierarchy.ruby_system.network.routers0.port_buffers6]
type=MessageBuffer
allow_zero_latency=true
buffer_size=0
eventq_index=0
max_dequeue_rate=0
ordered=true
randomization=ruby_system
routing_priority=0

[board.cache_hierarchy.ruby_system.network.routers0.port_buffers7]
type=MessageBuffer
allow_zero_latency=true
buffer_size=0
eventq_index=0
max_dequeue_rate=0
ordered=true
randomization=ruby_system
routing_priority=0

[board.cache_hierarchy.ruby_system.network.routers0.port_buffers8]
type=MessageBuffer
allow_zero_latency=true
buffer_size=0
eventq_index=0
max_dequeue_rate=0
ordered=true
randomization=ruby_system
routing_priority=0

[board.cache_hierarchy.ruby_system.network.routers0.power_state]
type=PowerState
clk_gate_bins=20
clk_gate_max=1000000000000
clk_gate_min=1000
default_state=UNDEFINED
eventq_index=0
leaders=
possible_states=

[board.cache_hierarchy.ruby_system.network.routers0.routing_unit]
type=WeightBased
adaptive_routing=false
eventq_index=0

[board.cache_hierarchy.ruby_system.network.routers1]
type=Switch
children=port_buffers0 port_buffers1 port_buffers2 port_buffers3 port_buffers4 port_buffers5 port_buffers6 port_buffers7 port_buffers8 power_state routing_unit
clk_domain=board.clk_domain
eventq_index=0
ext_routing_latency=1
int_routing_latency=1
latency=1
port_buffers=board.cache_hierarchy.ruby_system.network.routers1.port_buffers0 board.cache_hierarchy.ruby_system.network.routers1.port_buffers1 board.cache_hierarchy.ruby_system.network.routers1.port_buffers2 board.cache_hierarchy.ruby_system.network.routers1.port_buffers3 board.cache_hierarchy.ruby_system.network.routers1.port_buffers4 board.cache_hierarchy.ruby_system.network.routers1.port_buffers5 board.cache_hierarchy.ruby_system.network.routers1.port_buffers6 board.cache_hierarchy.ruby_system.network.routers1.port_buffers7 board.cache_hierarchy.ruby_system.network.routers1.port_buffers8
power_model=
power_state=board.cache_hierarchy.ruby_system.network.routers1.power_state
router_id=1
routing_unit=board.cache_hierarchy.ruby_system.network.routers1.routing_unit
virt_nets=3

[board.cache_hierarchy.ruby_system.network.routers1.port_buffers0]
type=MessageBuffer
allow_zero_latency=true
buffer_size=0
eventq_index=0
max_dequeue_rate=0
ordered=true
randomization=ruby_system
routing_priority=0

[board.cache_hierarchy.ruby_system.network.routers1.port_buffers1]
type=MessageBuffer
allow_zero_latency=true
buffer_size=0
eventq_index=0
max_dequeue_rate=0
ordered=true
randomization=ruby_system
routing_priority=0

[board.cache_hierarchy.ruby_system.network.routers1.port_buffers2]
type=MessageBuffer
allow_zero_latency=true
buffer_size=0
eventq_index=0
max_dequeue_rate=0
ordered=true
randomization=ruby_system
routing_priority=0

[board.cache_hierarchy.ruby_system.network.routers1.port_buffers3]
type=MessageBuffer
allow_zero_latency=true
buffer_size=0
eventq_index=0
max_dequeue_rate=0
ordered=true
randomization=ruby_system
routing_priority=0

[board.cache_hierarchy.ruby_system.network.routers1.port_buffers4]